6    
energy: -170.18662965309298 calculated by psi4
C       -0.2749924500   -1.0390173600   -0.9973483900
C       -0.4629397000    0.1336573700   -0.3063119800
H       -1.3012381800    0.8068630400   -0.5468034900
H        0.6368168800   -1.5268858000   -0.5576384900
C        0.3536041800    0.6269986900    0.7655577000
N        1.0429898500    1.0015134800    1.6397947500
