6    
energy: -170.17851201988634 calculated by psi4
C       -0.3679060100   -1.4590815200   -1.3853124400
C       -0.1506961200   -0.5940349700   -0.5641952200
H        0.0501173700    0.2040748100    0.1937903400
H       -0.5589097900   -2.2210902900   -2.1060051000
C        0.4067684900    1.6150193600    1.5317196000
N        0.6211050500    2.4544779200    2.3289534800
