6    
From optimize.out: Frame 1 / 1, Energy=    -170.1785506347
C       -0.2749924400   -1.0390173400   -0.9973483600
C       -0.4629397200    0.1336573900   -0.3063119800
H       -1.3012381900    0.8068630500   -0.5468034700
H        0.6368168900   -1.5268857800   -0.5576384700
C        0.3536041700    0.6269986800    0.7655576800
N        1.0429898800    1.0015134300    1.6397947000
6    
Frame 1: generated by geomeTRIC
C       -0.2830699254   -1.0594288725   -1.0176023467
C       -0.4744697757    0.0932362439   -0.3086577968
H       -1.2920450605    0.8053549728   -0.5085627637
H        0.6329999545   -1.5879982234   -0.6457076037
C        0.3676714673    0.6667047750    0.8063813152
N        1.0434374935    1.0850894379    1.6714765940
6    
Frame 2: generated by geomeTRIC
C       -0.2878985260   -1.0773001776   -1.0411419093
C       -0.4703213845    0.0642205635   -0.3259597897
H       -1.2658154025    0.8128625910   -0.4807145270
H        0.6079112982   -1.6629255519   -0.7162183511
C        0.3798803737    0.7077525396    0.8467034514
N        1.0310513585    1.1581772727    1.7147358220
6    
Frame 3: generated by geomeTRIC
C       -0.2929143394   -1.0954554863   -1.0638365771
C       -0.4643663822    0.0346996796   -0.3418568519
H       -1.2342672361    0.8186422737   -0.4497138554
H        0.5789646799   -1.7356572193   -0.7897518427
C        0.3902748752    0.7499047191    0.8864535979
N        1.0173996834    1.2304821741    1.7561875237
6    
Frame 4: generated by geomeTRIC
C       -0.2978828951   -1.1136770490   -1.0858416630
C       -0.4565126662    0.0048368849   -0.3565677676
H       -1.1973315946    0.8223644417   -0.4157765930
H        0.5457291657   -1.8058797925   -0.8656426656
C        0.3988882095    0.7929815246    0.9254572360
N        1.0024846252    1.3018190347    1.7959307461
6    
Frame 5: generated by geomeTRIC
C       -0.3027281680   -1.1318885343   -1.1071276573
C       -0.4467856940   -0.0253188614   -0.3701662280
H       -1.1549773665    0.8236678058   -0.3791323778
H        0.5080518706   -1.8730628241   -0.9434709709
C        0.4057368581    0.8368014409    0.9635607887
N        0.9863609080    1.3720749213    1.8339730362
6    
Frame 6: generated by geomeTRIC
C       -0.3074040226   -1.1500418505   -1.1276335516
C       -0.4352322222   -0.0557456065   -0.3826982201
H       -1.1072047682    0.8221795613   -0.3400349394
H        0.4658736466   -1.9366370824   -1.0228288973
C        0.4108312386    0.8811915072    1.0006126983
N        0.9690780996    1.4411563227    1.8702967992
6    
Frame 7: generated by geomeTRIC
C       -0.3126893959   -1.1669328311   -1.1453394741
C       -0.4173700069   -0.0855228330   -0.3911199978
H       -1.0461899687    0.8204815640   -0.2932177419
H        0.4159255721   -1.9971613971   -1.1039115322
C        0.4087112340    0.9256786529    1.0312016646
N        0.9478381008    1.5053885998    1.9001782686
6    
Frame 8: generated by geomeTRIC
C       -0.3177236098   -1.1842234375   -1.1624578298
C       -0.3995626919   -0.1160324366   -0.3994829016
H       -0.9823364274    0.8137781818   -0.2465284398
H        0.3629424968   -2.0515483241   -1.1855127123
C        0.4067383129    0.9703247022    1.0620282625
N        0.9264510186    1.5694619732    1.9298221064
6    
Frame 9: generated by geomeTRIC
C       -0.3223530173   -1.2017708153   -1.1792005131
C       -0.3815321467   -0.1470545159   -0.4080665438
H       -0.9160228613    0.8018490724   -0.2002308727
H        0.3068713600   -2.0999402766   -1.2668770914
C        0.4049075460    1.0151344484    1.0930920875
N        0.9049217820    1.6333716497    1.9592287172
6    
Frame 10: generated by geomeTRIC
C       -0.3265919058   -1.2195896135   -1.1956221337
C       -0.3633232900   -0.1786040840   -0.4169051672
H       -0.8474311423    0.7846822075   -0.1547215298
H        0.2479532399   -2.1422955645   -1.3475193278
C        0.4032139479    1.0601126294    1.1243926483
N        0.8832553767    1.6971128915    1.9883985921
6    
Frame 11: generated by geomeTRIC
C       -0.3304646756   -1.2376939121   -1.2117710889
C       -0.3449790928   -0.2106902373   -0.4260325849
H       -0.7767906378    0.7622579486   -0.1103426680
H        0.1864848751   -2.1785713727   -1.4270149543
C        0.4016524461    1.1052639535    1.1559293615
N        0.8614568750    1.7606809901    2.0173323146
