6    
From optimize.out: Frame 1 / 1, Energy=    -170.1785506347
C       -0.2749924500   -1.0390173600   -0.9973483900
C       -0.4629397000    0.1336573700   -0.3063119800
H       -1.3012381800    0.8068630400   -0.5468034900
H        0.6368168800   -1.5268858000   -0.5576384900
C        0.3536041800    0.6269986900    0.7655577000
N        1.0429898500    1.0015134800    1.6397947500
6    
Frame 1: generated by geomeTRIC
C       -0.2830644158   -1.0594243212   -1.0176087399
C       -0.4744675466    0.0932378587   -0.3086602869
H       -1.2920647087    0.8053386521   -0.5085397859
H        0.6330024255   -1.5879963701   -0.6457103399
C        0.3676754869    0.6667082068    0.8063765340
N        1.0434429176    1.0850943227    1.6714700254
6    
Frame 2: generated by geomeTRIC
C       -0.2878932374   -1.0772957820   -1.0411479920
C       -0.4703195734    0.0642218143   -0.3259617330
H       -1.2658339875    0.8128470999   -0.4806927874
H        0.6079138650   -1.6629235755   -0.7162212877
C        0.3798841105    0.7077557445    0.8466990058
N        1.0310565609    1.1581819770    1.7147295079
6    
Frame 3: generated by geomeTRIC
C       -0.2929092345   -1.0954512328   -1.0638423891
C       -0.4643647612    0.0347007613   -0.3418585262
H       -1.2342850635    0.8186273916   -0.4496930080
H        0.5789673041   -1.7356551656   -0.7897549057
C        0.3902784180    0.7499077694    0.8864493770
N        1.0174046544    1.2304866835    1.7561814724
6    
Frame 4: generated by geomeTRIC
C       -0.2978779706   -1.1136729424   -1.0858472076
C       -0.4565111607    0.0048378629   -0.3565692643
H       -1.1973487255    0.8223501302   -0.4157565756
H        0.5457318206   -1.8058776846   -0.8656458111
C        0.3988915767    0.7929844339    0.9254532164
N        1.0024893559    1.3018233364    1.7959249695
6    
Frame 5: generated by geomeTRIC
C       -0.3027234280   -1.1318845836   -1.1071329305
C       -0.4467842670   -0.0253179533   -0.3701675933
H       -1.1549938035    0.8236540718   -0.3791131962
H        0.5080545321   -1.8730606804   -0.9434741595
C        0.4057400513    0.8368042083    0.9635569676
N        0.9863653905    1.3720790026    1.8339675460
6    
Frame 6: generated by geomeTRIC
C       -0.3073994736   -1.1500380656   -1.1276385475
C       -0.4352308519   -0.0557447476   -0.3826994827
H       -1.1072204907    0.8221664308   -0.3400166256
H        0.4658762923   -1.9366349202   -1.0228320902
C        0.4108342521    0.8811941257    1.0006090807
N        0.9690823264    1.4411601715    1.8702916063
6    
Frame 7: generated by geomeTRIC
C       -0.3126850435   -1.1669292394   -1.1453441664
C       -0.4173686359   -0.0855219700   -0.3911212166
H       -1.0462049082    0.8204691544   -0.2932004543
H        0.4159281540   -1.9971592693   -1.1039146190
C        0.4087140200    0.9256810762    1.0311982971
N        0.9478420473    1.5053921719    1.9001734071
6    
Frame 8: generated by geomeTRIC
C       -0.3177194645   -1.1842200405   -1.1624622244
C       -0.3995613235   -0.1160315772   -0.3994840722
H       -0.9823505607    0.8137665097   -0.2465121856
H        0.3629450053   -2.0515462382   -1.1855156846
C        0.4067408714    0.9703269305    1.0620251442
N        0.9264546847    1.5694652685    1.9298175771
6    
Frame 9: generated by geomeTRIC
C       -0.3223490942   -1.2017676192   -1.1792046085
C       -0.3815307999   -0.1470536688   -0.4080676605
H       -0.9160361501    0.8018381547   -0.2002156682
H        0.3068737911   -2.0999382347   -1.2668799399
C        0.4049098771    1.0151364817    1.0930892176
N        0.9049251678    1.6333746681    1.9592245209
6    
Frame 10: generated by geomeTRIC
C       -0.3265882181   -1.2195866233   -1.1956259282
C       -0.3633219818   -0.1786032574   -0.4169062235
H       -0.8474435508    0.7846720630   -0.1547073938
H        0.2479555879   -2.1422935721   -1.3475220418
C        0.4032160516    1.0601144677    1.1243900260
N        0.8832584821    1.6971156331    1.9883947296
6    
Frame 11: generated by geomeTRIC
C       -0.3304612348   -1.2376911317   -1.2117745809
C       -0.3449778393   -0.2106894384   -0.4260335743
H       -0.7768021326    0.7622485955   -0.1103296196
H        0.1864871342   -2.1785694371   -1.4270175230
C        0.4016543224    1.1052655968    1.1559269861
N        0.8614597001    1.7606834548    2.0173287867
