6    
From optimize.out: Frame 1 / 1, Energy=    -170.1785506347
C       -0.3679060100   -1.4590815200   -1.3853124400
C       -0.1506961200   -0.5940349700   -0.5641952200
H        0.0501173700    0.2040748100    0.1937903400
H       -0.5589097900   -2.2210902900   -2.1060051000
C        0.4067684900    1.6150193600    1.5317196000
N        0.6211050500    2.4544779200    2.3289534800
6    
Frame 1: generated by geomeTRIC
C       -0.3632830512   -1.4369501315   -1.3694571043
C       -0.1652453693   -0.5571006074   -0.5483335728
H       -0.0206934775    0.2752622845    0.1840470388
H       -0.4952162388   -2.2402185479   -2.0619051390
C        0.4028794202    1.5676368556    1.4938112726
N        0.6417541430    2.3909065530    2.3007108665
6    
Frame 2: generated by geomeTRIC
C       -0.3590828718   -1.4152461881   -1.3534955695
C       -0.1812704670   -0.5208726547   -0.5324818049
H       -0.0938846722    0.3427393974    0.1710101766
H       -0.4288074593   -2.2551190006   -2.0149256661
C        0.3998088105    1.5204337464    1.4567643137
N        0.6631485225    2.3277722025    2.2719246139
6    
Frame 3: generated by geomeTRIC
C       -0.3549633093   -1.3938251644   -1.3377068364
C       -0.1979843800   -0.4848329217   -0.5174808794
H       -0.1685875205    0.4067914677    0.1539090675
H       -0.3611257352   -2.2663342793   -1.9638443108
C        0.3975600501    1.4734351916    1.4205633619
N        0.6847291941    2.2646443052    2.2432783627
6    
Frame 4: generated by geomeTRIC
C       -0.3509662300   -1.3727465729   -1.3220531729
C       -0.2153556411   -0.4490587460   -0.5033385495
H       -0.2445598334    0.4670920117    0.1328206409
H       -0.2923993863   -2.2734607065   -1.9088041381
C        0.3961234456    1.4266506655    1.3852172346
N        0.7065023807    2.2015730436    2.2147994523
6    
Frame 5: generated by geomeTRIC
C       -0.3471095485   -1.3520583210   -1.3065152988
C       -0.2333398286   -0.4136182198   -0.4900711868
H       -0.3215407970    0.5233311895    0.1078353574
H       -0.2229135523   -2.2761273410   -1.8499421964
C        0.3954923257    1.3800903584    1.3507359737
N        0.7284725726    2.1386031257    2.1865215199
6    
Frame 6: generated by geomeTRIC
C       -0.3433985252   -1.3318031940   -1.2910819579
C       -0.2518878765   -0.3785759373   -0.4776956158
H       -0.3992517761    0.5752156447    0.0790583379
H       -0.1529935180   -2.2739866825   -1.7874077479
C        0.3956628744    1.3337645988    1.3171327435
N        0.7506464295    2.0757774585    2.1584811111
6    
Frame 7: generated by geomeTRIC
C       -0.3420929572   -1.3128218562   -1.2749447112
C       -0.2715379862   -0.3444002257   -0.4660424945
H       -0.4762938510    0.6227698573    0.0461411790
H       -0.0812504683   -2.2658074254   -1.7218878195
C        0.3966351258    1.2876839809    1.2844253621
N        0.7730341815    2.0131386536    2.1307180568
6    
Frame 8: generated by geomeTRIC
C       -0.3397376820   -1.2936396709   -1.2592616915
C       -0.2897956171   -0.3101788262   -0.4554660617
H       -0.5536398691    0.6649521847    0.0108466735
H       -0.0116456617   -2.2525028185   -1.6524596290
C        0.3977149821    1.2417980736    1.2519504439
N        0.7953143287    1.9503051382    2.1027225393
6    
Frame 9: generated by geomeTRIC
C       -0.3370380361   -1.2747254894   -1.2435308933
C       -0.3081534490   -0.2764812898   -0.4452861002
H       -0.6297193065    0.7022724691   -0.0271397962
H        0.0564483946   -2.2335443017   -1.5799907814
C        0.3989076618    1.1961024706    1.2197089167
N        0.8174816524    1.8872813185    2.0744936308
6    
Frame 10: generated by geomeTRIC
C       -0.3339655591   -1.2560811211   -1.2277107914
C       -0.3265598027   -0.2433165927   -0.4354826038
H       -0.7042301610    0.7346876244   -0.0675805444
H        0.1226495588   -2.2088780034   -1.5047804939
C        0.4002183458    1.1505926941    1.1877016236
N        0.8395309719    1.8240716722    2.0460304882
6    
Frame 11: generated by geomeTRIC
C       -0.3304842052   -1.2377014441   -1.2117610350
C       -0.3449694892   -0.2106902579   -0.4260318113
H       -0.7768604119    0.7621916809   -0.1102463295
H        0.1865645751   -2.1784975524   -1.4271221202
C        0.4016522059    1.1052641673    1.1559293270
N        0.8614571152    1.7606807763    2.0173323491
