6    
From optimize.out: Frame 1 / 1, Energy=    -170.1785506347
C       -0.3679054300   -1.4590811000   -1.3853126100
C       -0.1506963500   -0.5940348400   -0.5641949700
H        0.0501167300    0.2040748400    0.1937909400
H       -0.5589088600   -2.2210897900   -2.1060054000
C        0.4067681200    1.6150190800    1.5317196100
N        0.6211051100    2.4544776700    2.3289532800
6    
Frame 1: generated by geomeTRIC
C       -0.3632824962   -1.4369497299   -1.3694572640
C       -0.1652455875   -0.5571004892   -0.5483333375
H       -0.0206940900    0.2752623048    0.1840475989
H       -0.4952153518   -2.2402180601   -2.0619054151
C        0.4028790684    1.5676365906    1.4938112866
N        0.6417541979    2.3909063148    2.3007106744
6    
Frame 2: generated by geomeTRIC
C       -0.3590819701   -1.4152455300   -1.3534960965
C       -0.1812704236   -0.5208724344   -0.5324817594
H       -0.0938865126    0.3427384041    0.1710120816
H       -0.4288064551   -2.2551183245   -2.0149261802
C        0.3998086770    1.5204336670    1.4567640942
N        0.6631488463    2.3277722197    2.2719240966
6    
Frame 3: generated by geomeTRIC
C       -0.3549620760   -1.3938242535   -1.3377077170
C       -0.1979841096   -0.4848326129   -0.5174809940
H       -0.1685905496    0.4067894815    0.1539122816
H       -0.3611246026   -2.2663334199   -1.9638450721
C        0.3975601311    1.4734352952    1.4205629134
N        0.6847297893    2.2646445823    2.2432775176
6    
Frame 4: generated by geomeTRIC
C       -0.3509646781   -1.3727454091   -1.3220544008
C       -0.2153551693   -0.4490583538   -0.5033388089
H       -0.2445640254    0.4670890396    0.1328251501
H       -0.2923981159   -2.2734596716   -1.9088051498
C        0.3961237428    1.4266509536    1.3852165555
N        0.7065032496    2.2015735848    2.2147982766
6    
Frame 5: generated by geomeTRIC
C       -0.3471076918   -1.3520569049   -1.3065168705
C       -0.2333391804   -0.4136177482   -0.4900715806
H       -0.3215461269    0.5233272375    0.1078411531
H       -0.2229121359   -2.2761261392   -1.8499434578
C        0.3954928419    1.3800908342    1.3507350606
N        0.7284737176    2.1386039351    2.1865200111
6    
Frame 6: generated by geomeTRIC
C       -0.3433963774   -1.3318015277   -1.2910838710
C       -0.2518870769   -0.3785753918   -0.4776961351
H       -0.3992582173    0.5752107215    0.0790654121
H       -0.1529919494   -2.2739853226   -1.7874092554
C        0.3956636137    1.3337652660    1.3171315919
N        0.7506478527    2.0757785401    2.1584792666
6    
Frame 7: generated by geomeTRIC
C       -0.3420905241   -1.3128199445   -1.2749469664
C       -0.2715370416   -0.3443996239   -0.4660431184
H       -0.4763013911    0.6227639920    0.0461495211
H       -0.0812487544   -2.2658059224   -1.7218895754
C        0.3966360925    1.2876848436    1.2844239671
N        0.7730358851    2.0131400116    2.1307158743
6    
Frame 8: generated by geomeTRIC
C       -0.3397349990   -1.2936375378   -1.2592642595
C       -0.2897945853   -0.3101781618   -0.4554667922
H       -0.5536484381    0.6649453963    0.0108562475
H       -0.0116437792   -2.2525011736   -1.6524616245
C        0.3977161762    1.2417991315    1.2519488049
N        0.7953163127    1.9503067728    2.1027200194
6    
Frame 9: generated by geomeTRIC
C       -0.3370351015   -1.2747231376   -1.2435337723
C       -0.3081523365   -0.2764805714   -0.4452869277
H       -0.6297288796    0.7022647893   -0.0271290237
H        0.0564504257   -2.2335425355   -1.5799929948
C        0.3989090833    1.1961037238    1.2197070328
N        0.8174839167    1.8872832297    2.0744907742
6    
Frame 10: generated by geomeTRIC
C       -0.3339623724   -1.2560785534   -1.2277139787
C       -0.3265586167   -0.2433158291   -0.4354835182
H       -0.7042407104    0.7346790873   -0.0675686105
H        0.1226517174   -2.2088761382   -1.5047829007
C        0.4002199947    1.1505941424    1.1876994943
N        0.8395335166    1.8240738602    2.0460272956
6    
Frame 11: generated by geomeTRIC
C       -0.3304807662   -1.2376986636   -1.2117645274
C       -0.3449682370   -0.2106894584   -0.4260328017
H       -0.7768719071    0.7621823236   -0.1102332759
H        0.1865668378   -2.1784956132   -1.4271246927
C        0.4016540822    1.1052658106    1.1559269516
N        0.8614599403    1.7606832410    2.0173288212
