6    
From optimize.out: Frame 1 / 1, Energy=    -170.1785506347
C       -0.3679060100   -1.4590815200   -1.3853124400
C       -0.1506961200   -0.5940349700   -0.5641952200
H        0.0501173700    0.2040748100    0.1937903400
H       -0.5589097900   -2.2210902900   -2.1060051000
C        0.4067684900    1.6150193600    1.5317196000
N        0.6211050500    2.4544779200    2.3289534800
6    

C       -0.3632830512   -1.4369501315   -1.3694571043
C       -0.1652453693   -0.5571006074   -0.5483335728
H       -0.0206934775    0.2752622845    0.1840470388
H       -0.4952162388   -2.2402185479   -2.0619051390
C        0.4028794202    1.5676368556    1.4938112726
N        0.6417541430    2.3909065530    2.3007108665
6    

C       -0.3590828718   -1.4152461881   -1.3534955695
C       -0.1812704670   -0.5208726547   -0.5324818049
H       -0.0938846722    0.3427393974    0.1710101766
H       -0.4288074593   -2.2551190006   -2.0149256661
C        0.3998088105    1.5204337464    1.4567643137
N        0.6631485225    2.3277722025    2.2719246139
6    

C       -0.3549633093   -1.3938251644   -1.3377068364
C       -0.1979843800   -0.4848329217   -0.5174808794
H       -0.1685875205    0.4067914677    0.1539090675
H       -0.3611257352   -2.2663342793   -1.9638443108
C        0.3975600501    1.4734351916    1.4205633619
N        0.6847291941    2.2646443052    2.2432783627
6    

C       -0.3471095485   -1.3520583210   -1.3065152988
C       -0.2333398286   -0.4136182198   -0.4900711868
H       -0.3215407970    0.5233311895    0.1078353574
H       -0.2229135523   -2.2761273410   -1.8499421964
C        0.3954923257    1.3800903584    1.3507359737
N        0.7284725726    2.1386031257    2.1865215199
6    

C       -0.3433985252   -1.3318031940   -1.2910819579
C       -0.2518878765   -0.3785759373   -0.4776956158
H       -0.3992517761    0.5752156447    0.0790583379
H       -0.1529935180   -2.2739866825   -1.7874077479
C        0.3956628744    1.3337645988    1.3171327435
N        0.7506464295    2.0757774585    2.1584811111
6    

C       -0.3420929572   -1.3128218562   -1.2749447112
C       -0.2715379862   -0.3444002257   -0.4660424945
H       -0.4762938510    0.6227698573    0.0461411790
H       -0.0812504683   -2.2658074254   -1.7218878195
C        0.3966351258    1.2876839809    1.2844253621
N        0.7730341815    2.0131386536    2.1307180568
6    

C       -0.3397376820   -1.2936396709   -1.2592616915
C       -0.2897956171   -0.3101788262   -0.4554660617
H       -0.5536398691    0.6649521847    0.0108466735
H       -0.0116456617   -2.2525028185   -1.6524596290
C        0.3977149821    1.2417980736    1.2519504439
N        0.7953143287    1.9503051382    2.1027225393
6    

C       -0.3370380361   -1.2747254894   -1.2435308933
C       -0.3081534490   -0.2764812898   -0.4452861002
H       -0.6297193065    0.7022724691   -0.0271397962
H        0.0564483946   -2.2335443017   -1.5799907814
C        0.3989076618    1.1961024706    1.2197089167
N        0.8174816524    1.8872813185    2.0744936308
6    

C       -0.3339655591   -1.2560811211   -1.2277107914
C       -0.3265598027   -0.2433165927   -0.4354826038
H       -0.7042301610    0.7346876244   -0.0675805444
H        0.1226495588   -2.2088780034   -1.5047804939
C        0.4002183458    1.1505926941    1.1877016236
N        0.8395309719    1.8240716722    2.0460304882
6    

C       -0.3304646756   -1.2376939121   -1.2117710889
C       -0.3449790928   -0.2106902373   -0.4260325849
H       -0.7767906378    0.7622579486   -0.1103426680
H        0.1864848751   -2.1785713727   -1.4270149543
C        0.4016524461    1.1052639535    1.1559293615
N        0.8614568750    1.7606809901    2.0173323146
6    

C       -0.3265919058   -1.2195896135   -1.1956221337
C       -0.3633232900   -0.1786040840   -0.4169051672
H       -0.8474311423    0.7846822075   -0.1547215298
H        0.2479532399   -2.1422955645   -1.3475193278
C        0.4032139479    1.0601126294    1.1243926483
N        0.8832553767    1.6971128915    1.9883985921
6    

C       -0.3223530173   -1.2017708153   -1.1792005131
C       -0.3815321467   -0.1470545159   -0.4080665438
H       -0.9160228613    0.8018490724   -0.2002308727
H        0.3068713600   -2.0999402766   -1.2668770914
C        0.4049075460    1.0151344484    1.0930920875
N        0.9049217820    1.6333716497    1.9592287172
6    

C       -0.3177236098   -1.1842234375   -1.1624578298
C       -0.3995626919   -0.1160324366   -0.3994829016
H       -0.9823364274    0.8137781818   -0.2465284398
H        0.3629424968   -2.0515483241   -1.1855127123
C        0.4067383129    0.9703247022    1.0620282625
N        0.9264510186    1.5694619732    1.9298221064
6    

C       -0.3126893959   -1.1669328311   -1.1453394741
C       -0.4173700069   -0.0855228330   -0.3911199978
H       -1.0461899687    0.8204815640   -0.2932177419
H        0.4159255721   -1.9971613971   -1.1039115322
C        0.4087112340    0.9256786529    1.0312016646
N        0.9478381008    1.5053885998    1.9001782686
6    

C       -0.3074040226   -1.1500418505   -1.1276335516
C       -0.4352322222   -0.0557456065   -0.3826982201
H       -1.1072047682    0.8221795613   -0.3400349394
H        0.4658736466   -1.9366370824   -1.0228288973
C        0.4108312386    0.8811915072    1.0006126983
N        0.9690780996    1.4411563227    1.8702967992
6    

C       -0.3027281680   -1.1318885343   -1.1071276573
C       -0.4467856940   -0.0253188614   -0.3701662280
H       -1.1549773665    0.8236678058   -0.3791323778
H        0.5080518706   -1.8730628241   -0.9434709709
C        0.4057368581    0.8368014409    0.9635607887
N        0.9863609080    1.3720749213    1.8339730362
6    

C       -0.2929143394   -1.0954554863   -1.0638365771
C       -0.4643663822    0.0346996796   -0.3418568519
H       -1.2342672361    0.8186422737   -0.4497138554
H        0.5789646799   -1.7356572193   -0.7897518427
C        0.3902748752    0.7499047191    0.8864535979
N        1.0173996834    1.2304821741    1.7561875237
6    

C       -0.2878985260   -1.0773001776   -1.0411419093
C       -0.4703213845    0.0642205635   -0.3259597897
H       -1.2658154025    0.8128625910   -0.4807145270
H        0.6079112982   -1.6629255519   -0.7162183511
C        0.3798803737    0.7077525396    0.8467034514
N        1.0310513585    1.1581772727    1.7147358220
6    

C       -0.2830699254   -1.0594288725   -1.0176023467
C       -0.4744697757    0.0932362439   -0.3086577968
H       -1.2920450605    0.8053549728   -0.5085627637
H        0.6329999545   -1.5879982234   -0.6457076037
C        0.3676714673    0.6667047750    0.8063813152
N        1.0434374935    1.0850894379    1.6714765940
6    

C       -0.2749924400   -1.0390173400   -0.9973483600
C       -0.4629397200    0.1336573900   -0.3063119800
H       -1.3012381900    0.8068630500   -0.5468034700
H        0.6368168900   -1.5268857800   -0.5576384700
C        0.3536041700    0.6269986800    0.7655576800
N        1.0429898800    1.0015134300    1.6397947000
